---- qbsp / ericw-tools v0.18.1 ----
Input file: FistFightMap.map
Output file: FistFightMap.bsp

---- LoadMapFile ----
*** WARNING 06: No info_player_deathmatch entities in level
          476 faces
           79 brushes
           46 entities
            9 unique texnames
           79 texinfo

Opened WAD: F:/quake-leveldesign-starterkit-master/quake-leveldesign-starterkit-master/wads/START.WAD
Opened WAD: F:/quake-leveldesign-starterkit-master/quake-leveldesign-starterkit-master/wads/prototype_1_2.wad
Opened WAD: wads/prototype_1_2.wad
Processing hull 0...
---- Brush_LoadEntity ----
           79 brushes
           97 planes
---- CSGFaces ----
          476 brushfaces
          519 csgfaces
          458 mergedfaces
---- SolidBSP ----
          662 split nodes
          281 solid leafs
          359 empty leafs
           23 water leafs
            0 detail leafs
            0 detail illusionary leafs
            0 detail fence leafs
            0 illusionary visblocker leafs
         1768 leaffaces
         1720 nodefaces
---- Portalize ----
          382 vis leafs
          382 vis clusters
         1038 vis portals
---- FillOutside ----
*** WARNING 10: Reached occupant at (424 -232 168), no filling performed.
Leak file written to FistFightMap.pts
---- MakeFaceEdges ----
---- GrowRegions ----
Processing hull 1...
Processing hull 2...
---- WriteBSPFile ----
Wrote FistFightMap.bsp
          147 planes             2940
         2113 vertexes          25356
          662 nodes             15888
           65 texinfo            2600
         1720 faces             34400
          622 clipnodes          4976
          383 leafs             10724
         1768 marksurfaces       3536
         6881 surfedges         27524
         4366 edges             17464
            9 textures         132304
              lightdata             0
              visdata               0
              entdata            2502

0.140 seconds elapsed
Peak memory usage: 6793452 (6.5M)
