---- qbsp / ericw-tools v0.18.1 ----
Input file: FistFightMap.map
Output file: FistFightMap.bsp

---- LoadMapFile ----
*** WARNING 02: Multiple info_player_start entities
*** WARNING 02: Multiple info_player_start entities
*** WARNING 02: Multiple info_player_start entities
          558 faces
           90 brushes
           77 entities
            9 unique texnames
          147 texinfo

Opened WAD: F:/quake-leveldesign-starterkit-master/quake-leveldesign-starterkit-master/wads/START.WAD
Opened WAD: F:/quake-leveldesign-starterkit-master/quake-leveldesign-starterkit-master/wads/prototype_1_2.wad
Opened WAD: wads/prototype_1_2.wad
Processing hull 0...
---- Brush_LoadEntity ----
           90 brushes
          159 planes
---- CSGFaces ----
          558 brushfaces
          604 csgfaces
          540 mergedfaces
---- SolidBSP ----
         1025 split nodes
          366 solid leafs
          625 empty leafs
           35 water leafs
            0 detail leafs
            0 detail illusionary leafs
            0 detail fence leafs
            0 illusionary visblocker leafs
         2232 leaffaces
         2038 nodefaces
---- Portalize ----
          660 vis leafs
          660 vis clusters
         1903 vis portals
---- FillOutside ----
          328 outleafs
---- MergeAll ----
          490 mergefaces
---- SolidBSP ----
          323 split nodes
          119 solid leafs
          201 empty leafs
            4 water leafs
            0 detail leafs
            0 detail illusionary leafs
            0 detail fence leafs
            0 illusionary visblocker leafs
         1299 leaffaces
          908 nodefaces
---- Portalize ----
          205 vis leafs
          205 vis clusters
          728 vis portals
---- Tjunc ----
          754 world edges
         3088 edge points
          744 edges added by tjunctions
            0 faces added by tjunctions
---- MakeFaceEdges ----
---- GrowRegions ----
Processing hull 1...
Processing hull 2...
*** WARNING 16: Texture __TB_empty not found
---- WriteBSPFile ----
Wrote FistFightMap.bsp
          471 planes             9420
         1225 vertexes          14700
          323 nodes              7752
          116 texinfo            4640
          908 faces             18160
         1529 clipnodes         12232
          206 leafs              5768
         1299 marksurfaces       2598
         4396 surfedges         17584
         2207 edges              8828
            9 textures          65128
              lightdata             0
              visdata               0
              entdata            4625

0.271 seconds elapsed
Peak memory usage: 7590498 (7.2M)
